%chk=C2H6.chk
# hf/3-21g

Title Card Required

0 1
 C              
 H                  1            B1
 H                  1            B2    2            A1
 H                  1            B3    2            A2    3            D1    0
 C                  1            B4    4            A3    3            D2    0
 H                  5            B5    1            A4    4            D3    0
 H                  5            B6    1            A5    4            D4    0
 H                  5            B7    1            A6    4            D5    0

   B1             1.06999997
   B2             1.07000059
   B3             1.06999938
   B4             1.54000047
   B5             1.06999973
   B6             1.07000100
   B7             1.06999900
   A1           109.47124604
   A2           109.47127414
   A3           109.47127312
   A4           109.47123679
   A5           109.47114860
   A6           109.47125314
   D1           120.00000804
   D2           119.99992291
   D3          -119.99994731
   D4            -0.00000000
   D5           119.99992968

