%mem=1000MB
%chk=LiuKun1.chk
# pm3

T1

0 1
H
N                  1            B1
C                  2            B2    1            A1
O                  3            B3    2            A2    1            D1    0

    B1     =     1.08     
    B2     =     1.5
    B3     =     1.4
    A1     =     107.696454
    D1     =     160.0
    A2     =     134.13593

