%chk=D:\ZhangCang\Work\C2H6.chk
# hf/3-21g geom=connectivity

Title Card Required

0 1
 C              
 H                  1            B1
 H                  1            B2    2            A1
 H                  1            B3    3            A2    2            D1    0
 C                  1            B4    4            A3    3            D2    0
 H                  5            B5    1            A4    4            D3    0
 H                  5            B6    1            A5    4            D4    0
 H                  5            B7    1            A6    4            D5    0

   B1             1.07000000
   B2             1.07000000
   B3             1.07000000
   B4             1.54000000
   B5             1.07000000
   B6             1.07000000
   B7             1.07000000
   A1           109.47120255
   A2           109.47121829
   A3           109.47121829
   A4           109.47120255
   A5           109.47120255
   A6           109.47123134
   D1          -120.00000060
   D2           120.00003407
   D3           -60.11109940
   D4            59.88891539
   D5           179.88890799

 1 2 1.0 3 1.0 4 1.0 5 1.0
 2
 3
 4
 5 6 1.0 7 1.0 8 1.0
 6
 7
 8

