%mem=1000MB
%chk=LiuKun1.chk
# pm3

T1

0 1
 C              
 H                  1            B1
 H                  2            B2    1            A1
 H                  3            B3    2            A2    1            D1    0
 C                  4            B4    1            A3    3            D2    0
 H                  5            B5    1            A4    4            D3    0
 H                  5            B6    1            A5    4            D4    0
 H                  5            B7    1            A6    4            D5    0

   B1             1.06999997
   B2             1.74730342
   B3             1.74730231
   B4             2.14826348
   B5             1.06999973
   B6             1.07000100
   B7             1.06999900
   A1            35.26438877
   A2            59.99999504
   A3            42.52098916
   A4           109.47123679
   A5           109.47114860
   A6           109.47125314
   D1           -35.26436036
   D2          -119.99992291
   D3           -60.11095667
   D4            59.88898893
   D5           179.88892032


