%mem=1000MB
%chk=LiuKun1.chk
# pm3

T1

0 1
  6       0.000000  0.000000  0.000000
  1       0.000000  0.000000  1.070000
  1       1.008806  0.000000 -0.356666
  1      -0.504403 -0.873651 -0.356667
  6      -0.725963  1.257405 -0.513333
  1      -0.724270  1.258383 -1.583331
  1      -1.735332  1.256427 -0.158264
  1      -0.222691  2.131055 -0.155070


